/*--------------------------------*- C++ -*----------------------------------*\
  =========                 |
  \\      /  F ield         | OpenFOAM: The Open Source CFD Toolbox
   \\    /   O peration     | Website:  https://openfoam.org
    \\  /    A nd           | Version:  6
     \\/     M anipulation  |
\*---------------------------------------------------------------------------*/
FoamFile
{
    version     2.0;
    format      ascii;
    class       volScalarField;
    object      p;
}
// * * * * * * * * * * * * * * * * * * * * * * * * * * * * * * * * * * * * * //

dimensions      [0 2 -2 0 0 0 0];

internalField   uniform 0;

boundaryField
{

    inlet
    {
        type            zeroGradient;
        value			uniform 0;
    }

    "outlet_ext*"
    {
        type            fixedValue;
        value           uniform 0;
    }
    "outlet_wall*|outlet_empty*"
    {
        type            slip;
    }    
    workpiece
    {
        type            zeroGradient;
        value			uniform 0;
    }
	
   wall
   {
       type             zeroGradient;
       value			uniform 0;
   }
	
	outlet
    {
        type            zeroGradient;
        value			uniform 0;
    }
	
    tool
    {
        type            zeroGradient;
        value			uniform 0;
    }
	
    front
    {
        type            zeroGradient;
        value           uniform 0;
    }
	
    back
    {
        type            empty;
    }
}


// ************************************************************************* //
